86
{"formula": "C50H34N2"}
 C     -0.14575577      3.43916123     -0.49540503
 C     -1.30842183      3.20245132     -1.22948910
 C     -2.47540702      2.96227185     -0.50311734
 C     -2.47038385      2.93075474      0.90302649
 C     -1.30593749      3.14060494      1.63699122
 C     -0.15126793      3.41959965      0.90982431
 C     -3.90790663      2.61713782     -0.93707897
 C     -4.10962381      1.15383625     -0.52736638
 C     -4.08574389      1.12624436      0.87960733
 C     -3.89174392      2.57182427      1.34081406
 C     -4.18411805     -0.01990306     -1.27598186
 C     -4.21824186     -1.21941978     -0.56644160
 C     -4.17822044     -1.24492673      0.83910961
 C     -4.10810651     -0.07285537      1.58961788
 C     -4.69034197      3.30712171      0.22183439
 C      1.27924473      3.81284100     -0.91840464
 C      1.25585430      3.79997140      1.36161238
 C      2.20420013      2.68275118      0.93043974
 C      2.23065045      2.69268886     -0.47529279
 C      3.01902064      1.83431260      1.67563534
 C      3.91690198      1.04571899      0.96041322
 C      3.96352929      1.06476962     -0.44398317
 C      3.09913565      1.86741078     -1.19074031
 C      1.59082366      4.83008838      0.23101499
 C      5.11313232      0.13178690     -0.85242300
 C      4.70385952     -1.28495595     -0.44796525
 C      4.63388530     -1.29722634      0.95910367
 C      5.02619579      0.10234060      1.42786324
 C      4.40594842     -2.42186644     -1.18214958
 C      4.00589450     -3.57837530     -0.49199939
 C      3.91294619     -3.58153653      0.89938578
 C      4.23129500     -2.43298685      1.64355722
 C      6.08983632      0.43334904      0.33092033
 C     -4.13065336     -2.71773357      1.24961798
 C     -2.76912835     -3.22512523      0.76813221
 C     -2.80609195     -3.20055182     -0.63811770
 C     -4.19131973     -2.67755541     -1.03024198
 C     -1.62387732     -3.61070670      1.44565804
 C     -0.50474581     -3.99614990      0.69092843
 C     -0.54087238     -3.97239571     -0.70236109
 C     -1.69696067     -3.56238573     -1.38543844
 C     -5.02719010     -3.31825669      0.12187543
 H     -1.30757646      3.22229427     -2.31700489
 H     -1.30235047      3.11181791      2.72381964
 H     -4.17843736      2.87527607     -1.96168557
 H     -4.14594135      2.78715401      2.37918476
 H     -4.20056025     -0.00316428     -2.36367864
 H     -4.05582719     -0.09331255      2.67543160
 H     -4.54718369      4.39165275      0.24291046
 H     -5.75453149      3.05189169      0.22344098
 H      1.39720215      4.15753788     -1.94646359
 H      1.35127237      4.13049571      2.39657608
 H      2.99184894      1.82647308      2.76230554
 H      3.13617937      1.88646764     -2.27750560
 H      0.91602712      5.69207526      0.22898243
 H      2.63761672      5.14978416      0.24376209
 H      5.49099649      0.25245940     -1.86833535
 H      5.32394899      0.19392230      2.47284393
 H      4.47878921     -2.42846586     -2.26720524
 H      3.76598210     -4.47987467     -1.04862447
 H      3.59689526     -4.48424211      1.41450158
 H      4.15781632     -2.44224741      2.72769434
 H      6.41202641      1.47840542      0.35767119
 H      6.94971474     -0.24389872      0.35369399
 H     -4.39144347     -2.93973452      2.28484115
 H     -4.50645310     -2.86513660     -2.05730830
 H     -1.58083962     -3.61047659      2.53132105
 H      0.40620542     -4.29993629      1.19886980
 H      0.34148839     -4.26106624     -1.26615383
 H     -1.71238950     -3.53385955     -2.47194731
 H     -6.05558808     -2.94565244      0.15546332
 H     -5.00692685     -4.41210941      0.10200377
 C      0.24008496     -0.54072051     -2.34572393
 C      1.33111318     -1.08070013     -1.64821359
 C      1.32308069     -1.10779604     -0.26419542
 C      0.22331476     -0.58818843      0.43584299
 C     -0.87626637     -0.06545810     -0.25826520
 C     -0.86473892     -0.03958402     -1.64290455
 C      0.25199004     -0.50341738     -3.77291231
 C      0.22012190     -0.59568981      1.86400479
 H      2.17968910     -1.47526735     -2.19229638
 H      2.16001161     -1.52840544      0.27774572
 H     -1.72715332      0.32374833      0.28611345
 H     -1.70909768      0.36834315     -2.18250660
 N      0.26030736     -0.46966715     -4.93563677
 N      0.21928801     -0.59585179      3.02655723
