20
{"formula": "C12H4N4"}
 C      0.00000000      1.41617774      0.00000000
 C      1.23615208      0.67925624      0.00000000
 C      1.23615208     -0.67925624      0.00000000
 C      0.00000000     -1.41617774      0.00000000
 C     -1.23615208     -0.67925624      0.00000000
 C     -1.23615208      0.67925624      0.00000000
 C      0.00000000      2.81256828      0.00000000
 C      1.21089714      3.55477586      0.00000000
 N      2.21144749      4.15024236      0.00000000
 C     -1.21089714      3.55477586      0.00000000
 N     -2.21144749      4.15024236      0.00000000
 C      0.00000000     -2.81256828      0.00000000
 C      1.21089714     -3.55477586      0.00000000
 N      2.21144749     -4.15024236      0.00000000
 C     -1.21089714     -3.55477586      0.00000000
 N     -2.21144749     -4.15024236      0.00000000
 H      2.17173673      1.23007948      0.00000000
 H      2.17173673     -1.23007948      0.00000000
 H     -2.17173673     -1.23007948      0.00000000
 H     -2.17173673      1.23007948      0.00000000
