14
{"formula": "C8H4N2"}
 C      0.00000000      1.39477711      0.00000000
 C      1.21809466      0.69352019      0.00000000
 C      1.21809466     -0.69352019      0.00000000
 C      0.00000000     -1.39477711      0.00000000
 C     -1.21809466     -0.69352019      0.00000000
 C     -1.21809466      0.69352019      0.00000000
 C      0.00000000      2.82354600      0.00000000
 C      0.00000000     -2.82354600      0.00000000
 H      2.15298035      1.24314625      0.00000000
 H      2.15298035     -1.24314625      0.00000000
 H     -2.15298035     -1.24314625      0.00000000
 H     -2.15298035      1.24314625      0.00000000
 N      0.00000000      3.98593502      0.00000000
 N      0.00000000     -3.98593502      0.00000000
