126
{"formula": "C55H47N5O19"}
 O      0.97308035      4.02953902      0.02172945
 O      5.22815353      4.29841679      0.55212836
 O      5.45574848      2.88709085     -1.50101356
 H      5.65504600      3.42845528     -0.65914823
 O      1.63081197      1.39763762     -3.81618792
 H      0.64177668      1.28788986     -3.63129902
 O     -0.85423682      1.13280486     -3.02370773
 O     -3.63485146      3.01805476      0.37843892
 O      0.94203333     -4.12458886     -0.01164943
 O      5.22753614     -4.12313089     -0.19235858
 O      5.19972604     -2.75944431      1.90676124
 H      5.49908074     -3.28735664      1.08740729
 O      1.10371426     -1.43164304      3.83099299
 H      0.13381525     -1.37347138      3.54795438
 O     -1.31348759     -1.31154950      2.81290603
 O     -3.65480128     -3.37232388     -0.81055862
 N     -4.55234325      1.09448596     -0.99695392
 H     -4.54061462      1.90826529     -0.33085456
 N     -4.76647564     -1.44231446      0.39144101
 H     -4.65209153     -2.26564952     -0.25439230
 C      1.94343076      3.43057128     -0.80415927
 C      3.32615618      3.54267184     -0.60305940
 C      4.12214696      2.86753893     -1.60096838
 C      3.56740538      2.16745205     -2.68705856
 C      2.17003462      2.08918951     -2.79641853
 C      1.35712197      2.72416033     -1.83509828
 C     -0.12611147      3.02723236     -1.80687236
 C     -1.12764174      1.90764202     -2.07828436
 C     -2.35501279      1.91709889     -1.32845622
 C     -2.54309005      2.90300028     -0.24390233
 C     -1.40414446      3.67786085      0.23983455
 H     -1.50881813      4.16767901      1.20106201
 C     -0.25120549      3.62020714     -0.44329593
 C      3.98048861      4.29050464      0.46425145
 C      3.18430131      5.08190000      1.47208231
 H      3.87934844      5.54190728      2.17505295
 H      2.48023651      4.43973808      2.00740648
 H      2.58976049      5.85327043      0.97167152
 C      4.46755500      1.52721621     -3.70895243
 H      5.36533428      1.12238604     -3.23579673
 H      4.80239031      2.26576357     -4.44790234
 H      3.93824183      0.73688028     -4.24430763
 C     -0.45288208      4.13306088     -2.87360385
 H     -1.49937292      4.43913031     -2.78950123
 H     -0.26728111      3.72575202     -3.87039320
 H      0.19468230      4.99776716     -2.70996529
 C     -3.38272506      0.95824433     -1.61679563
 C     -3.16449513     -0.17810804     -2.56828457
 H     -3.99603744     -0.88062083     -2.56377579
 H     -2.24951536     -0.71034853     -2.30251686
 H     -3.00750830      0.20520492     -3.58018350
 C     -5.75186636      0.27390695     -1.07837725
 H     -5.66805733     -0.41221869     -1.92464662
 C     -6.98157911      1.17206349     -1.28346245
 H     -7.04055786      1.88831050     -0.45262397
 H     -6.84506170      1.75438215     -2.20071028
 C     -8.26664537      0.33820900     -1.34827574
 H     -8.23509634     -0.30812313     -2.23603581
 H     -9.12969458      1.00135577     -1.46933140
 C      1.79601628     -3.47278453      0.89376390
 C      3.19589339     -3.51420704      0.81871899
 C      3.86252721     -2.79493050      1.87847387
 C      3.17610541     -2.10675933      2.89514406
 C      1.76970721     -2.10393004      2.87703696
 C      1.08106343     -2.79428861      1.86045937
 C     -0.37560231     -3.18415895      1.70562504
 C     -1.45946370     -2.12218292      1.86763306
 C     -2.61180237     -2.20948079      1.01187722
 C     -2.63744806     -3.19825975     -0.08655787
 C     -1.41550043     -3.90554010     -0.45471824
 H     -1.39180036     -4.38386001     -1.42649863
 C     -0.34406493     -3.78618023      0.33979219
 C      3.97531960     -4.19528520     -0.20265030
 C      3.31723986     -5.00248666     -1.29459325
 H      4.09511486     -5.37957838     -1.95884197
 H      2.60356225     -4.39774166     -1.86054956
 H      2.75162917     -5.83608367     -0.86494509
 C      3.94191137     -1.40977035      3.98732541
 H      4.83363271     -0.92150864      3.58813299
 H      4.27649174     -2.12991636      4.74419082
 H      3.30840528     -0.67225028      4.48275011
 C     -0.73055475     -4.29856044      2.75281435
 H     -0.65698325     -3.87510080      3.75747058
 H     -0.02315341     -5.12593161      2.65750728
 H     -1.74632704     -4.66579621      2.58195938
 C     -3.69132759     -1.28175742      1.15964147
 C     -3.63836551     -0.14458935      2.13633851
 H     -4.52879086      0.47937510      2.09030577
 H     -2.76622292      0.47891055      1.93535576
 H     -3.50566348     -0.52900855      3.14981671
 C     -5.91877037     -0.57312707      0.21221228
 H     -6.00050847      0.11352309      1.05877166
 C     -7.19976798     -1.41584334      0.12954627
 H     -7.29883503     -1.99956345      1.05067127
 H     -7.10013829     -2.13255066     -0.69706624
 C     -8.42931949     -0.52776749     -0.09348262
 H     -9.32506051     -1.15256427     -0.17414097
 H     -8.57206836      0.12099711      0.78154346
 O     -0.41483332      3.09588198      4.58009740
 O      1.71158480      3.28077653      5.07199320
 O      5.17349012      0.97686565      1.70342188
 O      6.43793076     -1.69245997     -2.69356582
 O      4.79526009     -2.68408416     -3.75288645
 O      0.35105969     -1.81532701     -2.70476303
 O     -0.27451314     -0.95894309     -0.80453592
 N      0.78198340      2.87398533      4.37038079
 N      5.24923096     -1.95828764     -2.86447207
 N      0.59146148     -1.25243830     -1.63731935
 C      1.72805255      0.56041293      0.92086640
 C      0.39800716      0.84901569      1.22787662
 H     -0.41034510      0.49940654      0.60862865
 C      0.10805391      1.60425977      2.36540843
 H     -0.91548170      1.83412133      2.63125033
 C      1.13088241      2.06937753      3.18199253
 C      2.47299408      1.81489942      2.90467390
 H      3.26549009      2.18816172      3.54270888
 C      2.74257040      1.07137970      1.77248215
 C      4.07955646      0.70100954      1.24568995
 C      3.79630103     -0.08853773      0.01180761
 C      4.74912293     -0.64129880     -0.82125345
 H      5.80777096     -0.52615400     -0.62152143
 C      4.28243043     -1.34805939     -1.92534150
 C      2.93074131     -1.50063581     -2.17637681
 H      2.59318856     -2.05130145     -3.04375614
 C      1.99208272     -0.94508935     -1.30326015
 C      2.39299130     -0.19740530     -0.18104142
