28
{"formula": "C13H5N3O7"}
 O     -5.74249132      0.67159601     -0.14502400
 O     -5.41639720     -1.49152121     -0.02839476
 O     -0.30820342     -3.16155064      0.11544704
 O      4.95155598     -2.25660115     -0.05249492
 O      5.59999477     -0.16252593     -0.07174575
 O      2.30454227      3.32870436     -0.57748745
 O      0.59091225      3.06243204      0.76202464
 N     -5.02137504     -0.32533711     -0.07283101
 N      4.73966948     -1.04350983     -0.04825755
 N      1.51498749      2.63835069      0.06401948
 C     -0.82485020      0.35517938      0.03990873
 C     -1.69627846      1.44272721     -0.03193631
 H     -1.33510601      2.46155158     -0.04352029
 C     -3.07213420      1.19999357     -0.07327862
 H     -3.78107115      2.01775415     -0.12839584
 C     -3.55433026     -0.10599185     -0.03712410
 C     -2.71190517     -1.21424345      0.02669300
 H     -3.10885118     -2.22279051      0.04348306
 C     -1.35206173     -0.95837674      0.05846225
 C     -0.23814053     -1.94749726      0.08636775
 C      1.01032973     -1.11724520      0.06446939
 C      2.31450970     -1.57428443      0.03950005
 H      2.54861499     -2.63284594      0.05105934
 C      3.32157403     -0.61041106     -0.01169025
 C      3.04399200      0.74811572     -0.03260880
 H      3.84827548      1.47162398     -0.08430333
 C      1.71495301      1.17168693      0.02509970
 C      0.65928468      0.25501669      0.06255853
