144
{"formula": "C62H68N8O6"}
 C      2.72868490      1.88197177     -7.40599237
 C      2.85726600      0.76201172     -8.22413636
 C      2.59720110     -0.49918131     -7.69342792
 C      2.24255692     -0.59370016     -6.34543670
 N      2.14406251      0.47779481     -5.54484412
 C      2.36519591      1.69156705     -6.07070363
 C      1.89634850     -1.94456824     -5.76519651
 O      1.79076117     -2.94027396     -6.48193863
 C      2.14648762      2.89534374     -5.18653742
 O      2.18558856      4.03920357     -5.64052302
 N      1.70627105     -1.92298161     -4.41878775
 C      1.21938388     -2.99791653     -3.62518640
 C     -0.07158109     -3.50820458     -3.83052178
 C     -0.55460806     -4.47474888     -2.93916304
 C      0.19759117     -4.93518991     -1.85596379
 C      1.49050069     -4.41899677     -1.69831215
 C      2.01960793     -3.46566169     -2.56828766
 C     -0.37112576     -5.92983139     -0.82485163
 C     -1.63942168     -6.63957346     -1.35940119
 C     -2.17734138     -7.69675466     -0.38771336
 C     -1.12274424     -8.76851583     -0.09474384
 C      0.16662979     -8.12061028      0.41931544
 C      0.67296869     -7.04615900     -0.55112462
 C     -0.69060547     -5.10829831      0.44116348
 C     -1.90464466     -4.42092785      0.56212256
 C     -2.20337215     -3.62299473      1.67003335
 C     -1.23576752     -3.48278660      2.68341694
 C     -0.00328768     -4.15453487      2.59538258
 C      0.23621894     -4.96037292      1.47703049
 C     -3.53115023     -2.91831155      1.78134831
 N     -1.49434891     -2.57972138      3.74949558
 C     -1.51547498     -2.90606908      5.07165911
 O     -1.42372665     -4.05016180      5.51705717
 C      1.05197787     -3.99637886      3.65548008
 C     -0.94004450     -3.00999462     -4.95367440
 C      3.41085071     -2.92075089     -2.36986845
 C     -1.63927233     -1.71332670      5.98760269
 N     -1.55715721     -0.49173916      5.44046541
 C     -1.57257624      0.57492321      6.25326718
 C     -1.70573486      0.46635780      7.63972766
 C     -1.82257269     -0.80450541      8.19749128
 C     -1.77583119     -1.91853250      7.36258408
 C     -1.37050125      1.93728494      5.63437499
 O     -1.19456838      2.93670635      6.33192387
 N      1.88675353      2.57870056     -3.88793213
 C      1.47343825      3.49245101     -2.88112600
 C      0.27160341      4.20758393     -3.01256652
 C     -0.14312919      5.01740598     -1.94705629
 C      0.58140894      5.12084471     -0.75791824
 C      1.77598069      4.39349948     -0.66258164
 C      2.24712290      3.59532576     -1.70713274
 C      0.09850908      5.96862254      0.43513090
 C     -1.07792636      6.89224726      0.03805383
 C     -1.51411783      7.81195200      1.18485936
 C     -0.35480121      8.69618108      1.65606892
 C      0.85364000      7.83551987      2.03878060
 C      1.25458643      6.90184947      0.89003585
 C     -0.32046624      4.97772578      1.53969796
 C     -1.60578508      4.42290714      1.55713587
 C     -1.98529242      3.45359475      2.48735454
 C     -1.03806594      3.01012646      3.42529447
 C      0.25484154      3.55845932      3.45614222
 C      0.58227610      4.53795132      2.51217650
 C     -3.37527375      2.87152783      2.47558212
 N     -1.38107986      1.92255606      4.27434628
 C      1.28308390      3.08846688      4.44896255
 C     -0.57785173      4.09145829     -4.24848640
 C      3.55130036      2.84857771     -1.58567117
 H     -1.63349374     -1.59465656      3.50434711
 H      1.85532456     -1.03157292     -3.93969774
 H     -1.58132093      1.02963693      3.81755852
 H      1.93063627      1.58898515     -3.62629719
 C      0.80776268      0.07802600     -1.30445289
 N      0.34199846      1.19043354     -0.71695511
 C     -0.51931299      1.26948051      0.45379382
 C     -0.86828698     -0.06363555      1.07651894
 N     -0.41542779     -1.17524251      0.47823715
 C      0.37807838     -1.25611794     -0.73926298
 O      1.57363205      0.10669770     -2.28199030
 O     -1.56475120     -0.09277500      2.10536632
 H      0.67100991      2.07512361     -1.10892668
 H     -0.68849799     -2.05913279      0.91229676
 H      2.88722106      2.89275655     -7.76533738
 H      3.14242112      0.87217216     -9.26641862
 H      2.64907163     -1.40687090     -8.28458293
 H     -1.55900807     -4.85109812     -3.10413886
 H      2.10813902     -4.75007951     -0.86776115
 H     -1.37475714     -7.11842705     -2.31146008
 H     -2.42865745     -5.91699095     -1.58706178
 H     -2.47501092     -7.21074090      0.55073934
 H     -3.08000094     -8.15300226     -0.81111435
 H     -0.90694564     -9.32607257     -1.01740687
 H     -1.50452087     -9.49189237      0.63510503
 H     -0.02235468     -7.66925578      1.40159593
 H      0.94693196     -8.87799264      0.56087434
 H      1.61196208     -6.62254858     -0.18338964
 H      0.90819480     -7.50709459     -1.51933925
 H     -2.65383600     -4.50070912     -0.21965697
 H      1.19310231     -5.47075435      1.42421315
 H     -4.02982691     -3.18441657      2.71976423
 H     -3.40568413     -1.82948546      1.78275322
 H     -4.18269641     -3.19367400      0.94790449
 H      2.01477681     -4.37178530      3.29845535
 H      1.16683537     -2.94409865      3.93925383
 H      0.76992262     -4.54232465      4.56211996
 H     -1.97386744     -3.33832203     -4.81617318
 H     -0.57329395     -3.38098725     -5.91681455
 H     -0.92243103     -1.91528227     -5.00637286
 H      3.91792966     -3.44523406     -1.55536094
 H      4.00603136     -3.03329432     -3.28254066
 H      3.38748823     -1.84959401     -2.13532320
 H     -1.70239017      1.37141874      8.23713627
 H     -1.93325606     -0.92614033      9.27116421
 H     -1.82961508     -2.93493487      7.73676657
 H     -1.07546534      5.56002928     -2.06416974
 H      2.36476640      4.43943550      0.24943461
 H     -0.74873178      7.50361685     -0.81277396
 H     -1.93449392      6.30911319     -0.31437410
 H     -1.87375006      7.20229861      2.02390074
 H     -2.35699081      8.43032880      0.85417370
 H     -0.07018209      9.38215348      0.84529976
 H     -0.66696357      9.31564037      2.50488461
 H      0.60733549      7.23955965      2.92666374
 H      1.70718990      8.47002852      2.30593654
 H      2.13869782      6.32004943      1.16715584
 H      1.54683170      7.49833869      0.01587581
 H     -2.34362342      4.73872002      0.82534270
 H      1.58751599      4.94733511      2.54424872
 H     -3.84120003      2.95837768      3.46314599
 H     -3.35428346      1.80449512      2.22430059
 H     -4.00361351      3.38977195      1.74592559
 H      2.27840241      3.44472171      4.16970898
 H      1.04266701      3.45283343      5.45351938
 H      1.30386275      1.99391326      4.50363764
 H     -1.57653810      4.49831647     -4.06810902
 H     -0.67435453      3.04523054     -4.55997314
 H     -0.11752203      4.63149037     -5.08286866
 H      3.39785148      1.76460779     -1.63553151
 H      4.22351543      3.11428118     -2.40893603
 H      4.04402313      3.08865976     -0.63980950
 H     -1.46015262      1.76763805      0.19521649
 H     -0.04273114      1.88677084      1.22283927
 H      1.28337045     -1.83828286     -0.54731873
 H     -0.17410974     -1.79439161     -1.51923104
