130
{"formula": "C58H62N6O4"}
 C      2.94606658      1.85934591     -7.34116828
 C      3.16065796      0.72407594     -8.11880548
 C      2.84309959     -0.52695334     -7.59567838
 C      2.32759610     -0.59591807     -6.29972979
 N      2.13084419      0.49347262     -5.53971911
 C      2.42665119      1.69764398     -6.05509223
 C      1.95510639     -1.94288031     -5.72517586
 O      2.08735226     -2.97754617     -6.37473977
 C      2.16555082      2.92013049     -5.20627109
 O      2.39356184      4.05317707     -5.62361431
 N      1.46999924     -1.85699136     -4.45341256
 C      1.01457002     -2.91731899     -3.62369028
 C     -0.03941104     -3.74857040     -4.02894227
 C     -0.49262569     -4.72484787     -3.13078869
 C      0.05657054     -4.88003866     -1.85838440
 C      1.10918450     -4.03133410     -1.49173073
 C      1.60063307     -3.05373876     -2.35062466
 C     -0.45412013     -5.91095948     -0.83698116
 C     -1.76105851     -6.59354006     -1.30875797
 C     -2.21234639     -7.70274607     -0.35407256
 C     -1.14445239     -8.79843520     -0.26894897
 C      0.19259409     -8.20565477      0.18861485
 C      0.62290465     -7.02051804     -0.69063446
 H     -1.02378580     -9.25977315     -1.25977395
 H     -1.45920766     -9.59281417      0.41793798
 C     -0.70630123     -5.13198868      0.46469910
 C     -1.71037229     -4.15505538      0.47949683
 C     -1.92852625     -3.33632229      1.58315338
 C     -1.11082065     -3.49995262      2.71753017
 C     -0.08887466     -4.45961395      2.73997829
 C      0.08677116     -5.26123563      1.60431110
 C     -3.00899633     -2.28474619      1.56313757
 N     -1.30038931     -2.61070753      3.80958815
 C     -1.55230788     -2.93718053      5.10982504
 O     -1.67016128     -4.07755890      5.55186622
 C      0.83604179     -4.60856487      3.91720468
 C     -0.71452969     -3.58049265     -5.36309294
 C      2.72756638     -2.14745887     -1.92378152
 C     -1.67093985     -1.72597288      6.00473032
 N     -1.49859333     -0.51303412      5.45502924
 C     -1.56370714      0.56670052      6.25068962
 C     -1.82143433      0.47888207      7.62032500
 C     -2.01440972     -0.78135442      8.18077689
 C     -1.93340126     -1.90668025      7.36431457
 C     -1.32572518      1.92371898      5.63104813
 O     -1.33811181      2.95031065      6.30609518
 N      1.66118836      2.61050098     -3.97746275
 C      1.29547926      3.50848391     -2.93828547
 C      0.32427232      4.49769967     -3.14850705
 C     -0.04617222      5.30042532     -2.06062083
 C      0.50489921      5.13540744     -0.79028193
 C      1.47348057      4.13737152     -0.62145118
 C      1.88112295      3.32131857     -1.67153408
 C      0.08187103      5.97133152      0.42987268
 C     -1.15260227      6.85427238      0.12554368
 C     -1.50916381      7.77460096      1.29669754
 C     -0.34589573      8.72509800      1.59959592
 C      0.92717099      7.92954324      1.90782938
 C      1.25474481      6.92220939      0.79399937
 H     -0.17428072      9.37178283      0.72689975
 H     -0.59286972      9.38243250      2.44151107
 C     -0.25135273      4.96313238      1.54205576
 C     -1.34274138      4.10292207      1.36476834
 C     -1.64330479      3.09361916      2.27405458
 C     -0.82013697      2.93688663      3.40542065
 C      0.28738024      3.77059637      3.61503527
 C      0.54398973      4.77421647      2.67172377
 C     -2.81809268      2.17569358      2.04876313
 N     -1.09855858      1.85830401      4.28758837
 C      1.21584371      3.58023989      4.78341705
 C     -0.35169267      4.67558505     -4.48092885
 C      2.91803300      2.24801735     -1.45679083
 H     -1.34119704     -1.61134683      3.62676446
 H      1.53865477     -0.92293387     -4.05740748
 H     -2.32311973     -4.00391897     -0.40568814
 H      0.90035623     -5.97901522      1.62200408
 H     -1.32193454     -5.34915931     -3.44752226
 H      1.54250356     -4.11912339     -0.49820922
 H     -3.65685718     -2.36241970      2.44331181
 H     -3.62522144     -2.38416913      0.66609694
 H     -2.58774059     -1.27000853      1.56130611
 H      1.14835845     -3.62920191      4.29740308
 H      1.72806931     -5.17308436      3.63176399
 H      0.33545467     -5.12546475      4.74261280
 H      3.52518989     -2.12196132     -2.67443204
 H      3.15153504     -2.48380035     -0.97427621
 H      2.38536474     -1.11305562     -1.78197344
 H     -0.88992179     -2.52102588     -5.58281862
 H     -1.67547779     -4.10223453     -5.37229881
 H     -0.08662871     -3.97263047     -6.16991897
 H     -2.55261861     -5.84732983     -1.43641138
 H     -1.58115680     -7.03991384     -2.29554150
 H     -2.39166588     -7.28095325      0.64385303
 H     -3.16385741     -8.12173835     -0.70213910
 H      0.09169196     -7.88537951      1.23190024
 H      0.97874293     -8.97028911      0.16615586
 H      0.83780984     -7.38612492     -1.70312966
 H      1.55844037     -6.58397443     -0.32164623
 H     -2.06058539     -2.91579596      7.74001563
 H     -2.21840665     -0.88567206      9.24242316
 H      2.97510128     -1.44776126     -8.15278921
 H      3.56472345      0.81372719     -9.12294893
 H     -1.23257850      0.92866990      3.89811015
 H      1.64449720      1.61162101     -3.78772810
 H     -1.96180909      4.19966065      0.47631328
 H      1.42169720      5.39263936      2.82839072
 H     -0.81356522      6.04902081     -2.23000697
 H      1.90513499      3.97540537      0.36344826
 H     -3.46062309      2.12644886      2.93485252
 H     -3.41694380      2.51907046      1.20167086
 H     -2.49459388      1.14921234      1.82760902
 H      1.43209803      2.51779322      4.94394751
 H      2.15887308      4.10615250      4.61018262
 H      0.76218054      3.95570126      5.70663674
 H      3.71571867      2.30827077     -2.20535936
 H      3.36342171      2.33846358     -0.46293276
 H      2.48224458      1.24211394     -1.53055400
 H     -0.61900327      3.70624873     -4.91733070
 H     -1.26216549      5.27096007     -4.36988107
 H      0.31558340      5.17177537     -5.19337217
 H     -2.00802407      6.22729850     -0.14807665
 H     -0.92341259      7.47969773     -0.74722581
 H     -1.73610461      7.17070755      2.18529559
 H     -2.41458842      8.34313986      1.05390636
 H      0.78828045      7.40692919      2.86104596
 H      1.78012323      8.60683487      2.03858857
 H      1.51036369      7.47182822     -0.12121497
 H      2.14340055      6.33444423      1.05212637
 H     -1.85825581      1.39288573      8.20252057
 H      3.16111910      2.86211465     -7.69307683
