122
{"formula": "C39H46N25O12", "charge": 1}
 O     -0.01929105     -3.26335558     -3.67137666
 O     -0.00473841      2.81111976     -3.16254616
 O     -3.00237849     -3.18248733     -1.77509732
 O     -2.98443047      2.90198534     -1.66126350
 O      2.93305105     -3.29000983      1.82130186
 O      3.21377592      2.84351076      1.62937473
 O      2.93305105     -3.29000983     -1.82130186
 O      3.21377592      2.84351076     -1.62937473
 O     -3.00237849     -3.18248733      1.77509732
 O     -0.00473841      2.81111976      3.16254616
 O     -0.01929105     -3.26335558      3.67137666
 O     -2.98443047      2.90198534      1.66126350
 N     -0.68904269      3.11914696      0.00000000
 N     -1.10381950      1.11010043     -4.30439709
 N      1.12399533      1.07923195     -4.23643333
 N     -3.23334598     -1.33715206      3.17690767
 N      1.12218642     -1.37108801     -4.41039829
 N     -4.32389657     -1.34682178      1.21948879
 N     -4.39441889      1.10753305      1.22276514
 N     -1.11720496     -1.34128194     -4.39541784
 N     -3.24049022      1.11893561      3.12777109
 N      1.12218642     -1.37108801      4.41039829
 N     -4.39441889      1.10753305     -1.22276514
 N     -3.24049022      1.11893561     -3.12777109
 N     -3.23334598     -1.33715206     -3.17690767
 N     -4.32389657     -1.34682178     -1.21948879
 N     -1.11720496     -1.34128194      4.39541784
 N      3.25510280     -1.45125021     -3.21308864
 N     -1.10381950      1.11010043      4.30439709
 N      4.26580761     -1.47734184     -1.21572571
 N      4.53670269      0.96940084     -1.22455810
 N      4.53670269      0.96940084      1.22455810
 N      3.24465295      1.00002045     -3.04582052
 N      1.12399533      1.07923195      4.23643333
 N      3.24465295      1.00002045      3.04582052
 N      3.25510280     -1.45125021      3.21308864
 N      4.26580761     -1.47734184      1.21572571
 C     -4.79251435     -0.14122717      1.85776219
 C      4.81860490     -0.30328236      1.85902319
 C      4.01358699     -0.22508359      3.20152407
 C      3.41443482     -2.20172886      2.04850011
 C      2.45652497     -1.93620702     -4.31846039
 C      2.46199840      1.61639317     -4.09143302
 C      3.61270128      1.73064991      1.92281789
 C      0.00871382      1.77813441      3.81645794
 C      3.61270128      1.73064991     -1.92281789
 C      3.41443482     -2.20172886     -2.04850011
 C      5.14195489      1.45256650      0.00000000
 C      4.78517006     -2.06895969      0.00000000
 C     -4.00384092     -0.11929415     -3.21372664
 C     -4.79251435     -0.14122717     -1.85776219
 C      4.01358699     -0.22508359     -3.20152407
 C     -3.45121343     -2.08565649     -2.02110395
 C      4.81860490     -0.30328236     -1.85902319
 C     -2.45819635     -1.87272191      4.28191163
 C     -3.47709349      1.81831393     -1.96727223
 C     -2.42765880      1.67179532      4.19462253
 C     -0.00384088     -2.12818847      4.09215069
 C      2.46199840      1.61639317      4.09143302
 C     -4.95885485      1.63925803      0.00000000
 C     -4.86872828     -1.90877348      0.00000000
 C      0.79744311     -0.10242246     -5.01863771
 C     -0.76999029     -0.09587467     -5.03920498
 C      2.45652497     -1.93620702      4.31846039
 C     -0.00384088     -2.12818847     -4.09215069
 C     -3.47709349      1.81831393      1.96727223
 C     -3.45121343     -2.08565649      2.02110395
 C      0.00871382      1.77813441     -3.81645794
 C     -4.00384092     -0.11929415      3.21372664
 C      0.79744311     -0.10242246      5.01863771
 C     -0.76999029     -0.09587467      5.03920498
 C     -2.42765880      1.67179532     -4.19462253
 C     -2.45819635     -1.87272191     -4.28191163
 C      0.26215186      1.94426697      0.00000000
 C     -0.48878027      0.61811459      0.00000000
 C      0.49138965     -0.56062325      0.00000000
 H     -0.03830036     -1.51641124      0.00000000
 H      0.88491611      2.06279034     -0.88656077
 H      2.32381732     -3.01035025      4.16297273
 H     -5.88337797     -0.16117685      1.98302451
 H     -4.65200831     -0.09364760      4.09972731
 H     -2.31062681      2.73602166      3.97761821
 H     -2.95369023      1.53013198      5.14648079
 H     -2.35032659     -2.94551081      4.09831040
 H     -3.00447978     -1.69361544      5.21714026
 H      5.90189240     -0.41639667     -2.00408357
 H      4.65320851     -0.15916621     -4.09267239
 H      2.98435008      1.51299671     -5.05204735
 H      2.35917115      2.67114959     -3.82348426
 H      2.99314739     -1.74445036     -5.25616138
 H      2.32381732     -3.01035025     -4.16297273
 H      4.65320851     -0.15916621      4.09267239
 H      5.90189240     -0.41639667      2.00408357
 H      5.02217104      2.53856293      0.00000000
 H      6.20391366      1.18200866      0.00000000
 H      4.46800403     -3.11592606      0.00000000
 H      5.88181598     -1.99766847      0.00000000
 H     -4.65200831     -0.09364760     -4.09972731
 H     -5.88337797     -0.16117685     -1.98302451
 H     -6.03893775      1.45103840      0.00000000
 H     -4.75892347      2.71308373      0.00000000
 H     -5.95980089     -1.78432956      0.00000000
 H     -4.60214050     -2.96967039      0.00000000
 H      1.25019168     -0.02469696     -6.01655277
 H     -1.19664660     -0.04763156     -6.05053910
 H     -2.31062681      2.73602166     -3.97761821
 H     -2.95369023      1.53013198     -5.14648079
 H     -2.35032659     -2.94551081     -4.09831040
 H     -3.00447978     -1.69361544     -5.21714026
 H      2.99314739     -1.74445036      5.25616138
 H      2.35917115      2.67114959      3.82348426
 H      2.98435008      1.51299671      5.05204735
 H      1.25019168     -0.02469696      6.01655277
 H     -1.19664660     -0.04763156      6.05053910
 H     -1.31425448      3.10729269      0.83019189
 H     -0.15929467      3.99427515      0.00000000
 H     -1.31425448      3.10729269     -0.83019189
 H      1.13446222     -0.53159050      0.88545266
 H      1.13446222     -0.53159050     -0.88545266
 H     -1.13754982      0.55822115      0.88247821
 H     -1.13754982      0.55822115     -0.88247821
 H      0.88491611      2.06279034      0.88656077
