125
{"formula": "C40H48N25O12", "charge": 1}
 C     -0.77604981     -0.08462338      5.02574072
 C      0.79120781     -0.09450791      5.00761860
 N      1.11308729     -1.35961128      4.39110422
 C     -0.01363484     -2.10877442      4.05967057
 N     -1.12552584     -1.32206350      4.36733068
 N     -1.10590689      1.13078837      4.30555531
 C      0.00957467      1.80674462      3.83370831
 N      1.12289874      1.09277646      4.23592511
 O     -0.00029403      2.85598711      3.20722864
 O     -0.03116515     -3.23898745      3.62488969
 C      2.46209807      1.63487299      4.11263023
 C      2.44669546     -1.92192041      4.28697359
 C     -4.80713648     -0.09066218      1.85858820
 C     -4.01005035     -0.08318005      3.20972620
 N     -3.24388296     -1.30368704      3.15654352
 C     -3.50037500     -2.05787903      2.01220697
 N     -4.37114025     -1.30763033      1.21993893
 N     -4.38703499      1.14997531      1.22087611
 C     -3.47696700      1.85879409      1.97539414
 N     -3.24515292      1.15424269      3.13319341
 O     -2.98880743      2.94776206      1.67966405
 O     -3.07995202     -3.16657922      1.76885565
 C     -2.42859231      1.69646377      4.20316964
 C     -2.46738621     -1.85128570      4.25454002
 C      4.82379718     -0.26096775     -1.86054506
 C      4.01221007     -0.19869660     -3.20110871
 N      3.23989903     -1.41772828     -3.18614299
 C      3.43327917     -2.17139756     -2.02981599
 N      4.30185006     -1.44756610     -1.21637495
 N      4.51671872      1.00491645     -1.22333307
 C      3.60800604      1.76736639     -1.93963059
 N      3.25844074      1.03661567     -3.06750451
 O      3.20867615      2.88258437     -1.65517012
 O      2.96365129     -3.26382332     -1.79480737
 C      2.46209807      1.63487299     -4.11263023
 C      2.44669546     -1.92192041     -4.28697359
 C      4.01221007     -0.19869660      3.20110871
 C      4.82379718     -0.26096775      1.86054506
 N      4.30185006     -1.44756610      1.21637495
 C      3.43327917     -2.17139756      2.02981599
 N      3.23989903     -1.41772828      3.18614299
 N      3.25844074      1.03661567      3.06750451
 C      3.60800604      1.76736639      1.93963059
 N      4.51671872      1.00491645      1.22333307
 O      3.20867615      2.88258437      1.65517012
 O      2.96365129     -3.26382332      1.79480737
 C      5.11630115      1.49755683      0.00000000
 C      4.83225395     -2.02738274      0.00000000
 C     -4.01005035     -0.08318005     -3.20972620
 C     -4.80713648     -0.09066218     -1.85858820
 N     -4.37114025     -1.30763033     -1.21993893
 C     -3.50037500     -2.05787903     -2.01220697
 N     -3.24388296     -1.30368704     -3.15654352
 N     -3.24515292      1.15424269     -3.13319341
 C     -3.47696700      1.85879409     -1.97539414
 N     -4.38703499      1.14997531     -1.22087611
 O     -2.98880743      2.94776206     -1.67966405
 O     -3.07995202     -3.16657922     -1.76885565
 C     -4.94787411      1.68894097      0.00000000
 C     -4.92863320     -1.85657929      0.00000000
 C      0.79120781     -0.09450791     -5.00761860
 C     -0.77604981     -0.08462338     -5.02574072
 N     -1.12552584     -1.32206350     -4.36733068
 C     -0.01363484     -2.10877442     -4.05967057
 N      1.11308729     -1.35961128     -4.39110422
 N      1.12289874      1.09277646     -4.23592511
 C      0.00957467      1.80674462     -3.83370831
 N     -1.10590689      1.13078837     -4.30555531
 O     -0.00029403      2.85598711     -3.20722864
 O     -0.03116515     -3.23898745     -3.62488969
 C     -2.42859231      1.69646377     -4.20316964
 C     -2.46738621     -1.85128570     -4.25454002
 H     -1.20408811     -0.04786567      6.03704377
 H      1.24224764     -0.02606923      6.00708887
 H      2.97497461      1.51856524      5.07676671
 H      2.35907596      2.69316410      3.85927155
 H      2.98562666     -1.74433788      5.22641368
 H      2.31519832     -2.99371539      4.11471665
 H     -5.89742559     -0.08621739      1.99090073
 H     -4.65338059     -0.06460835      4.09959979
 H     -2.30892631      2.76218452      3.99515952
 H     -2.95395912      1.54803424      5.15441443
 H     -2.36307082     -2.92255298      4.05992966
 H     -3.00916610     -1.68012047      5.19414338
 H      5.90871239     -0.35024450     -2.00990351
 H      4.64835454     -0.15785318     -4.09627559
 H      2.97497461      1.51856524     -5.07676671
 H      2.35907596      2.69316410     -3.85927155
 H      2.98562666     -1.74433788     -5.22641368
 H      2.31519832     -2.99371539     -4.11471665
 H      4.64835454     -0.15785318      4.09627559
 H      5.90871239     -0.35024450      2.00990351
 H      4.98001658      2.58174952      0.00000000
 H      6.18260157      1.24304215      0.00000000
 H      4.53722589     -3.08068976      0.00000000
 H      5.92674559     -1.93288612      0.00000000
 H     -4.65338059     -0.06460835     -4.09959979
 H     -5.89742559     -0.08621739     -1.99090073
 H     -6.02996771      1.51132976      0.00000000
 H     -4.73781640      2.76085960      0.00000000
 H     -6.01637820     -1.70735502      0.00000000
 H     -4.68628577     -2.92321207      0.00000000
 H      1.24224764     -0.02606923     -6.00708887
 H     -1.20408811     -0.04786567     -6.03704377
 H     -2.30892631      2.76218452     -3.99515952
 H     -2.95395912      1.54803424     -5.15441443
 H     -2.36307082     -2.92255298     -4.05992966
 H     -3.00916610     -1.68012047     -5.19414338
 C      0.06842371     -1.68181642      0.00000000
 C      0.69671672     -0.28608873      0.00000000
 C     -0.35340153      0.83393669      0.00000000
 C      0.30033363      2.20890583      0.00000000
 N     -0.74265176      3.30395543      0.00000000
 H     -1.36639555      3.23906675      0.82911105
 H     -0.29056381      4.22118229      0.00000000
 H     -1.36639555      3.23906675     -0.82911105
 H      0.83310840     -2.46153242      0.00000000
 H     -0.55858779     -1.83439553     -0.88409481
 H     -0.55858779     -1.83439553      0.88409481
 H      1.34278319     -0.16579968      0.87908440
 H      1.34278319     -0.16579968     -0.87908440
 H     -0.99717865      0.72464729      0.88295930
 H     -0.99717865      0.72464729     -0.88295930
 H      0.91209192      2.37284103      0.88688333
 H      0.91209192      2.37284103     -0.88688333
