14
{"formula": "C3H10N", "charge": 1}
 N     -0.73025899      1.78929212      0.00000000
 C      0.33368522      0.67923198      0.00000000
 C     -0.32475765     -0.69238285      0.00000000
 C      0.73957968     -1.79929119      0.00000000
 H      0.25411617     -2.77740106      0.00000000
 H      0.94163017      0.85360563     -0.89072355
 H     -1.33375348      1.71366515      0.82800476
 H     -0.30810888      2.72576552      0.00000000
 H     -1.33375348      1.71366515     -0.82800476
 H      1.37532682     -1.73631000      0.88830499
 H      1.37532682     -1.73631000     -0.88830499
 H     -0.96533128     -0.79356805      0.88577942
 H     -0.96533128     -0.79356805     -0.88577942
 H      0.94163017      0.85360563      0.89072355
