177
{"formula": "C60FeH72N30O14", "charge": 2}
 O     -3.02478656     -2.86106545     -2.95241295
 O     -4.10405675      0.73074461     -3.19004303
 O     -1.90226016      3.71748308     -3.19648673
 O      1.72566781      3.96626289     -3.22662774
 O      3.87767200      0.98557409     -2.98311585
 O      3.32252697     -2.64135479     -2.90833846
 O      0.20832777     -4.35721143     -2.85756524
 O     -3.20506762     -2.51221399      3.08165772
 O     -4.20429998      0.90864238      2.93640220
 O     -2.05299364      3.74024042      2.88020451
 O      1.61112630      3.75150417      2.86976552
 O      4.25474541      1.17874777      3.10396509
 O      3.47614474     -2.36752904      3.16190115
 O      0.19401994     -4.10076567      3.26779000
 N     -3.14431122     -4.27845701     -1.11245207
 N     -4.47979616     -2.48551815     -1.17180128
 N     -5.18963841     -0.15993544     -1.33516393
 N     -4.81973623      2.04256752     -1.40389296
 N     -3.34587677      3.99089691     -1.38834443
 N     -1.39918067      5.09797062     -1.38818734
 N      1.04765703      5.22046221     -1.38456985
 N      3.05375832      4.23488089     -1.33371973
 N      4.63232824      2.37643522     -1.27677825
 N      5.13716911      0.20111075     -1.18849696
 N      4.76633116     -2.20036836     -1.13732675
 N      3.52315984     -4.04873414     -1.06546521
 N      1.34495374     -5.13724684     -0.98141446
 N     -0.88859708     -5.20770850     -0.98962182
 N     -3.09056097     -4.04132540      1.32757253
 N     -4.66592771     -2.45502833      1.27290675
 N     -5.25313075     -0.08923014      1.11426824
 N     -4.85536738      2.10894796      1.05082145
 N     -3.45795829      4.10492927      1.06090702
 N     -1.44537009      5.06225336      1.06420296
 N      0.98517539      5.08094783      1.06356215
 N      3.05916410      4.25073923      1.11769034
 N      4.66379418      2.41528981      1.17412594
 N      5.35568611      0.29076998      1.25338837
 N      4.86885988     -2.10956552      1.31197505
 N      3.48770893     -3.87106148      1.38225822
 N      1.34323989     -5.03795731      1.47228254
 N     -0.89078183     -5.08216942      1.45863625
 C     -3.86483070     -4.36157309      0.13744206
 C     -4.88393427     -3.17988654      0.04199186
 C      0.22021510     -4.83703427     -1.73629297
 C      2.67127316     -5.10277611     -1.56550321
 C     -5.84973438      0.32488517     -0.14178028
 C     -5.57968700      1.86608912     -0.18330247
 C      3.80637409     -2.92516007     -1.82404658
 C      5.45059710     -1.09206091     -1.76186090
 C     -3.42792338      4.81863737     -0.20109540
 C     -2.04095278      5.54379724     -0.17125009
 C      4.47202505      1.16760296     -1.93305910
 C      4.24670520      3.63229058     -1.88883521
 C      1.60464672      5.65182015     -0.11976224
 C      3.03441817      5.01604493     -0.11287673
 C      1.91359098      4.41462958     -2.11110168
 C      5.40959710      2.25997040     -0.05939962
 C      5.82739547      0.75240572     -0.03477540
 C     -2.20526671     -5.26907182     -1.59134112
 C     -3.48791949     -3.16827044     -1.86638711
 C      5.18520021     -2.83504291      0.10149657
 C      4.26474886     -4.09882773      0.17983430
 C     -5.31496757     -1.50486407     -1.84635628
 C     -4.63108776      0.85813240     -2.10016577
 C      1.02806743     -5.79049252      0.27521507
 C     -0.53669177     -5.83170540      0.27200174
 C     -4.48444431      3.32567184     -1.98926433
 C     -2.17570846      4.19956712     -2.11513360
 C     -2.22693873     -4.99806491      2.00063584
 C     -3.60218478     -2.94544698      2.01262940
 C     -0.20226287      5.69286764     -1.94929518
 C      0.21635067     -4.66339615      2.18854553
 C      2.67533622     -4.88531014      2.02353645
 C     -5.49435378     -1.36920198      1.74924498
 C     -4.70511953      0.96796902      1.82577970
 C      3.88487481     -2.73050257      2.07668214
 C      5.65036716     -1.00558276      1.83359942
 C     -4.61314708      3.42755316      1.60246197
 C     -2.28765714      4.23601394      1.78973472
 C      4.69839394      1.27750015      1.97516669
 C      4.25677657      3.69458201      1.71496084
 C     -0.23624788      5.59219536      1.65106198
 C      1.85621281      4.29028124      1.80270103
 H     -4.33709782     -5.34703399      0.24364099
 H      4.04575670      3.53202891      2.77481620
 H     -0.23754960      5.29405808      2.70223220
 H     -0.24145699      6.68721444      1.56280870
 H      5.07354290      4.41895298      1.59478454
 H      6.71525358     -1.22677395      1.68685324
 H     -5.50126610      4.05087518      1.43729808
 H     -4.43239142      3.29489321      2.67173298
 H      5.41911874     -0.92757196      2.89873493
 H      3.19624134     -5.85073843      1.96677990
 H     -6.54744768     -1.64395195      1.60839215
 H     -5.27176831     -1.24309677      2.81126981
 H      2.55091151     -4.57981631      3.06545122
 H     -0.18261512      5.42785474     -3.00929520
 H     -2.12761457     -4.66670143      3.03720785
 H     -2.69807355     -5.98989966      1.96033582
 H     -0.25874953      6.78218935     -1.82674766
 H     -0.95142511     -6.84770492      0.32072173
 H     -5.36017085      3.98557583     -1.92483050
 H      1.49570138     -6.78347791      0.31318610
 H     -4.22571498      3.13599050     -3.03398806
 H      4.81822077     -5.04459755      0.25225210
 H     -6.36390929     -1.82413927     -1.77477117
 H      6.25715940     -3.07059142      0.06354745
 H     -4.99693079     -1.47691407     -2.89138731
 H      6.90986723      0.59196543     -0.12816770
 H     -2.62981711     -6.26624493     -1.41903216
 H      6.26049294      2.95414327     -0.08530046
 H     -2.07348239     -5.09006978     -2.66087086
 H      3.84680873      5.75515577     -0.11557011
 H      4.03211124      3.42820686     -2.94070110
 H      1.60779263      6.74814309     -0.05475336
 H      5.08630946      4.33444481     -1.79920296
 H     -2.11500696      6.63932916     -0.15489577
 H      6.53517347     -1.25515068     -1.69915765
 H     -4.28334777      5.50409608     -0.26787315
 H      5.12797692     -1.06848003     -2.80550908
 H     -6.49406801      2.47396914     -0.21039812
 H      2.54097686     -4.92645112     -2.63575993
 H     -6.91651897      0.06355985     -0.15887857
 H      3.16174883     -6.06906935     -1.39208705
 H     -5.93077057     -3.50224472     -0.03386777
Fe      0.14239761      0.12643379     -0.00099335
 C      1.44462058      0.33962528      1.52634292
 C     -0.06308148     -1.41371473      1.30881901
 C      1.03327710     -1.65613844      0.42893505
 C      1.96323770     -0.57597691      0.56363175
 C      0.18459942     -0.17306338      1.99234983
 C     -1.44440260      0.11847078     -1.27054440
 C     -1.50222003      1.25777567     -0.41412480
 C     -0.30240801      2.01714061     -0.59691122
 C      0.50305217      1.34924005     -1.56605014
 C     -0.19897194      0.16723708     -1.98773581
 C     -0.73102920      0.51259162      2.93926430
 C      0.32227883     -0.85962054     -2.92552056
 N     -0.38506602      0.24700607      4.41779429
 N      0.07893358     -0.50903067     -4.40640340
 C     -0.44965914     -1.22939321      4.70670872
 C      0.99340711      0.76654685      4.73402399
 C     -1.40964927      0.98070964      5.24023524
 C      0.79292371      0.76811821     -4.76597264
 C      0.63123883     -1.64991214     -5.21756742
 C     -1.39629082     -0.35576411     -4.66598622
 H      1.89210717      1.27062929      1.84098636
 H     -0.93869916     -2.03354609      1.43361386
 H      1.13386824     -2.49491600     -0.24417655
 H      2.88004936     -0.45908663      0.00533143
 H     -2.18831365     -0.65951941     -1.35737420
 H     -2.29970530      1.49481252      0.27467370
 H     -0.03960116      2.91986744     -0.06580414
 H      1.48042150      1.64937893     -1.91306844
 H     -1.76355637      0.17871696      2.82464368
 H     -0.69292123      1.59835761      2.83368613
 H      1.40379670     -0.98157237     -2.84071996
 H     -0.15918887     -1.82799098     -2.77951200
 H      0.31356560     -1.73616724      4.11794225
 H     -0.26339257     -1.37204848      5.77222182
 H     -1.43928909     -1.59410684      4.43061869
 H      1.72578903      0.18451897      4.17570164
 H      1.04562089      1.81742051      4.44685849
 H      1.15713253      0.64823851      5.80608797
 H     -2.39592451      0.59404176      4.98218808
 H     -1.18821588      0.81341475      6.29516020
 H     -1.35200319      2.04123825      4.99263808
 H      1.84558367      0.66773124     -4.49904806
 H      0.67714255      0.92441406     -5.83943519
 H      0.33952132      1.59181300     -4.21567662
 H      1.69389953     -1.74764252     -4.99246664
 H      0.10683490     -2.56091771     -4.92763826
 H      0.47461968     -1.42852567     -6.27411787
 H     -1.76990934      0.48619638     -4.08501496
 H     -1.53245598     -0.17054130     -5.73254295
 H     -1.89956066     -1.27360726     -4.36134799
