126
{"formula": "C42H42N28O14"}
 O     -4.27130969      0.06334886     -3.13164871
 O     -2.74318890      3.53038698     -3.11326245
 O      0.89721385      4.32869589     -3.11725646
 O      3.80384940      1.86190691     -3.13470206
 O      3.89324266     -1.99328240     -3.12214262
 O      1.03219080     -4.37629217     -3.11308865
 O     -2.61546904     -3.41709863     -3.12932667
 O     -4.44962566     -0.06730262      3.11513295
 O     -2.69621725      3.30409859      3.13428933
 O      1.04586053      4.19851259      3.12826222
 O      4.05744133      1.93886964      3.11305267
 O      3.96360540     -1.79460958      3.12258874
 O      0.90626637     -4.15178889      3.13394968
 O     -2.82215641     -3.42507667      3.11661299
 N     -5.05506799     -1.09280424     -1.26628173
 N     -5.13397728      1.14354923     -1.25785738
 N     -4.05348537      3.32810228     -1.19669534
 N     -2.34796824      4.77829075     -1.18718255
 N      0.02995891      5.32933660     -1.20202394
 N      2.18845749      4.73552457     -1.22001042
 N      4.10628374      3.23411787     -1.27744505
 N      5.03961611      1.20073502     -1.27363201
 N      5.03088875     -1.23303341     -1.23506864
 N      4.17434310     -3.30109394     -1.21645843
 N      2.26218757     -4.81880313     -1.18548972
 N      0.06877116     -5.26709556     -1.18739790
 N     -2.31444000     -4.75635199     -1.24862390
 N     -4.00240640     -3.28739250     -1.26102350
 N     -5.19243732     -1.14847618      1.19109442
 N     -5.11454648      1.08895645      1.20386350
 N     -4.08523677      3.29751877      1.26515979
 N     -2.29875243      4.64488908      1.27052328
 N      0.07363773      5.18839829      1.25577291
 N      2.27515792      4.78743367      1.24049912
 N      4.16034362      3.24143795      1.18384995
 N      5.16026199      1.23843332      1.18472160
 N      5.17319897     -1.20225647      1.22325058
 N      4.09562160     -3.16420547      1.24111506
 N      2.19972442     -4.68986797      1.27211262
 N      0.03309093     -5.24839037      1.27437972
 N     -2.33538592     -4.67802873      1.21256749
 N     -4.13756427     -3.34976338      1.19660461
 C     -5.80530630     -0.78497614     -0.06613021
 C     -5.80612043      0.78070305     -0.03183084
 C     -2.92858094     -3.76555726     -2.00945348
 C     -1.22455966     -5.54497489     -1.77673594
 C     -4.23381398      4.05482296      0.04368930
 C     -3.01137901      5.03342640      0.07137159
 C      1.10866946     -4.75828570     -1.96339655
 C      3.55919118     -4.49959440     -1.74264883
 C      0.53050017      5.84877373      0.04959879
 C      2.05665490      5.50096462      0.00401251
 C      4.30134428     -2.15041224     -1.98977116
 C      5.54684139     -0.02622309     -1.84595597
 C      4.89309922      3.22952147     -0.06513672
 C      5.56937044      1.81685374     -0.07606271
 C      4.24787873      2.06728743     -2.02371555
 C      5.57173290     -1.81495463     -0.02202958
 C      4.89457619     -3.22538639      0.03268409
 C     -4.98589356     -2.41068333     -1.85872733
 C     -4.74611683      0.04133301     -2.01463881
 C      2.05710011     -5.49365298      0.07650703
 C      0.53126575     -5.84653324      0.05712512
 C     -5.06851221      2.48455376     -1.79289742
 C     -3.00566127      3.83014573     -1.96661532
 C     -3.01298582     -5.03967806     -0.01676781
 C     -4.23429476     -4.06037059     -0.05778865
 C     -1.28777503      5.59603876     -1.73582232
 C      1.01923736      4.73296884     -1.97916972
 C     -5.16813357     -2.48896064      1.73502017
 C     -4.85351147     -0.04559759      1.97057400
 C      3.45995695      4.40327351     -1.82862515
 C     -3.05995196     -3.76330550      1.97526179
 C     -1.28689575     -5.47293879      1.81806829
 C     -5.08677696      2.40630302      1.80496400
 C     -2.98227862      3.68900880      2.01906582
 C      1.02744019     -4.62356889      2.02200230
 C      3.47198652     -4.31936362      1.85088783
 C     -1.22321496      5.41415539      1.85647155
 C      1.11967579      4.65328433      2.00514569
 C      4.34952876     -2.01854135      1.99364658
 C      5.72012959      0.02888907      1.74903203
 C      3.57302913      4.42974209      1.76682729
 C      4.40285094      2.11123529      1.96216127
 H     -6.81419039     -1.22140920     -0.13169871
 H      5.48718595      0.04633668      2.81746971
 H      3.43567739      4.22013372      2.83145078
 H      4.25983438      5.27750526      1.62425493
 H      6.80850257      0.02963245      1.58941684
 H      4.15952323     -5.17731064      1.78576554
 H     -1.46983661      6.48537444      1.78939695
 H     -1.14468788      5.10284876      2.90209415
 H      3.28108059     -4.05891046      2.89599146
 H     -1.53790099     -6.53959956      1.71454165
 H     -6.07670393      2.87421204      1.69315357
 H     -4.84625189      2.26269195      2.86221877
 H     -1.24773273     -5.18759922      2.87318902
 H      3.25608426      4.18610825     -2.88109483
 H     -4.96641737     -2.38928496      2.80524427
 H     -6.14802613     -2.95933951      1.56700380
 H      4.14006275      5.26388739     -1.73578082
 H     -5.20551380     -4.57513464     -0.12354263
 H     -1.53121438      6.65543009     -1.56820741
 H     -3.30460611     -6.10109441      0.01416950
 H     -1.24394538      5.37496205     -2.80597617
 H      0.33326232     -6.92978579      0.06260379
 H     -6.05175792      2.96379853     -1.67165783
 H      2.70970289     -6.37853156      0.13901221
 H     -4.81408888      2.39065566     -2.85247018
 H      5.61600036     -4.05450069      0.10097184
 H     -5.97750186     -2.88575031     -1.79565204
 H      6.67022016     -1.85939687     -0.08407882
 H     -4.69209411     -2.27262165     -2.90331688
 H      6.66843005      1.85884834     -0.13034626
 H      5.22942813     -0.04327811     -2.89261718
 H      5.61576225      4.06018974     -0.08342765
 H      6.64594582     -0.02713683     -1.77540023
 H      2.70649035      6.38907466     -0.03706658
 H      4.23829176     -5.34868483     -1.57662829
 H      0.33019233      6.92965020      0.11438161
 H      3.40647309     -4.33130471     -2.81246595
 H     -3.30165391      6.09384620      0.13422967
 H     -1.14266967     -5.30015978     -2.83951329
 H     -5.20666826      4.57070244      0.03774926
 H     -1.46000952     -6.61136976     -1.64183320
 H     -6.81695470      1.21705988     -0.01451642
