27
{"formula": "C10H16O"}
 C     -0.01263242      0.93318400      1.58710452
 C     -1.26615872      0.46266844      0.82715734
 C     -1.30379805     -1.07620958      0.80256521
 C     -0.04429797     -1.61150034      0.09724356
 C      1.20768904     -1.14165016      0.86023235
 C      1.24864217      0.39715401      0.88564895
 C     -1.21389674      0.98914583     -0.62036930
 C      0.00268895     -1.07568929     -1.34606959
 C      1.29126020      0.92372371     -0.56220523
 C      0.04257393      0.45419515     -1.32424106
 O      0.08580003      0.87751517     -2.70304881
 H     -0.04611676      0.57324621      2.62376596
 H      0.01515956      2.03044171      1.62335929
 H     -2.16587811      0.84680181      1.32393832
 H     -2.20393677     -1.42139086      0.27724434
 H     -1.35335114     -1.46549873      1.82793454
 H     -0.07230856     -2.70784138      0.07462166
 H      2.11166966     -1.53308376      0.37565812
 H      1.19030181     -1.53243945      1.88605690
 H      2.14307496      0.73455474      1.42419724
 H     -1.19276749      2.08889120     -0.62230569
 H     -2.10092137      0.67259254     -1.18265934
 H      0.89052522     -1.44912224     -1.87074787
 H     -0.87912128     -1.40222515     -1.91070203
 H      2.18566810      0.56053585     -1.08301314
 H      1.32766199      2.02311837     -0.56404645
 H      0.11246977      1.84888221     -2.70731980
