9
1a. Water trimer, 3B-69 Test set
O  -0.084889   0.056804   0.055205
H   0.710375   0.517729   0.413971
H  -0.890958   0.498588   0.414274
O   4.422945  -0.026001  -0.007196
H   4.446575  -0.955128   0.320949
H   4.445532  -0.084110  -0.991962
O   2.201771   1.306708   0.969979
H   2.989729   0.844404   0.598684
H   2.274831   1.268852   1.952936
