12
2c. Formaldehyde trimer, 3B-69 Test set            
O  10.815188   9.239955   1.635515
C  10.910554   8.895380   2.793163
H  11.711326   8.218033   3.124239
H  10.211440   9.244063   3.564302
O  10.815188   9.239955   6.109515
C  10.910554   8.895380   7.267163
H  11.711326   8.218033   7.598239
H  10.211440   9.244063   8.038302
O   9.239955   6.667012   7.312485
C   8.895380   6.571646   6.154837
H   8.218033   5.770874   5.823761
H   9.244063   7.270760   5.383698
