21
5a. Nitromethane trimer, 3B-69 Test set
C   5.876316  12.851650  11.679005
N   7.053622  11.936059  11.686151
O   7.845061  12.008533  12.621496
O   7.159396  11.135353  10.770117
H   5.662227  13.091026  10.645575
H   5.048894  12.295747  12.115925
H   6.111871  13.719841  12.279769
C   3.283816   8.977850  13.841995
N   4.461122   9.893441  13.834849
O   5.252561   9.820967  12.899504
O   4.566896  10.694147  14.750883
H   3.069727   8.738474  14.875425
H   2.456394   9.533753  13.405075
H   3.519371   8.109659  13.241231
C   4.493684   9.733150   9.588495
N   3.316378   8.817559   9.581349
O   2.524939   8.890033   8.646004
O   3.210604   8.016853  10.497383
H   4.707773   9.972526  10.621925
H   5.321106   9.177247   9.151575
H   4.258129  10.601341   8.987731
