24
{"formula": "C8H8N4O4", "name": "Uracildimerhbonded"}
 O     -1.46633160      1.01216930      0.00000000
 C     -0.62814640      1.91426780      0.00000000
 N      0.72050930      1.68826880      0.00000000
 C      1.63672900      2.70527640      0.00000000
 C      1.27690360      4.00617630      0.00000000
 C     -0.12860050      4.36215490      0.00000000
 N     -0.97772300      3.23964330      0.00000000
 O     -0.59722290      5.48640660      0.00000000
 H      2.01035040      4.79386420      0.00000000
 H      1.02325150      0.70618200      0.00000000
 H     -1.97002680      3.43238500      0.00000000
 H      2.66906200      2.38834170      0.00000000
 O      1.46633160     -1.01216930      0.00000000
 C      0.62814640     -1.91426780      0.00000000
 N     -0.72050930     -1.68826880      0.00000000
 C     -1.63672900     -2.70527640      0.00000000
 C     -1.27690360     -4.00617630      0.00000000
 C      0.12860050     -4.36215490      0.00000000
 N      0.97772300     -3.23964330      0.00000000
 O      0.59722290     -5.48640660      0.00000000
 H     -2.01035040     -4.79386420      0.00000000
 H     -1.02325150     -0.70618200      0.00000000
 H      1.97002680     -3.43238500      0.00000000
 H     -2.66906200     -2.38834170      0.00000000
