12
{"formula": "C6H6"}
 C      1.39321780      0.03629130     -0.63328030
 C      0.72803640     -1.18840150     -0.63330170
 C     -0.66517970     -1.22470770     -0.63328030
 C     -1.39320410     -0.03629720     -0.63330170
 C     -0.72803810      1.18841630     -0.63328030
 C      0.66516770      1.22469870     -0.63330170
 H      2.47427370      0.06444840     -0.63172400
 H      1.29295880     -2.11054090     -0.63174010
 H     -1.18132290     -2.17500810     -0.63172400
 H     -2.47426140     -0.06446470     -0.63174010
 H     -1.29295080      2.11055960     -0.63172400
 H      1.18130260      2.17500560     -0.63174010
