10
{"formula": "C4H4N2"}
 C     -1.24718940     -1.17182120     -0.69613880
 C     -1.24718940     -1.17182120      0.69613880
 N     -0.25895100     -1.72357710      1.41447960
 C      0.73153270     -2.26522210      0.69672880
 C      0.73153270     -2.26522210     -0.69672880
 N     -0.25895100     -1.72357710     -1.41447960
 H     -2.06343630     -0.72231990     -1.24727970
 H     -2.06343630     -0.72231990      1.24727970
 H      1.54880040     -2.71282820      1.24756040
 H      1.54880040     -2.71282820     -1.24756040
