16
{"formula": "C8H7N"}
 H      0.80652450     -0.43588660      0.00000000
 N     -0.14424080     -0.76869270      0.00000000
 C     -0.51611220     -2.08932200      0.00000000
 C     -1.88987550     -2.18144950      0.00000000
 C     -2.39323170     -0.84708300      0.00000000
 C     -1.26406530      0.01958870      0.00000000
 C     -1.38960040      1.41176680      0.00000000
 C     -2.67265010      1.93664500      0.00000000
 C     -3.80545110      1.09747900      0.00000000
 C     -3.67981670     -0.28172090      0.00000000
 H      0.23100240     -2.86531730      0.00000000
 H     -2.45857590     -3.09560520      0.00000000
 H     -0.51887330      2.05395200      0.00000000
 H     -2.80775700      3.00978590      0.00000000
 H     -4.79059910      1.54393720      0.00000000
 H     -4.55801870     -0.91429160      0.00000000
