12
{"formula": "C6H6"}
 C      2.51189970      1.62501480      0.00000000
 C      2.71300940      0.95785370     -1.20829180
 C      3.11778210     -0.37674360     -1.20836470
 C      3.32138480     -1.04373070      0.00000000
 C      3.11778210     -0.37674360      1.20836470
 C      2.71300940      0.95785370      1.20829180
 H      2.20240380      2.66113580      0.00000000
 H      2.55117600      1.47369080     -2.14459000
 H      3.27029990     -0.89514060     -2.14483790
 H      3.63681390     -2.07815210      0.00000000
 H      3.27029990     -0.89514060      2.14483790
 H      2.55117600      1.47369080      2.14459000
