18
4c. Acetonitrile trimer, 3B-69 Test set       
N   0.000000   7.615376   7.171412
C   0.000000   5.649997   8.879421
C   0.000000   6.749023   7.931167
H   0.000000   4.702934   8.339793
H   0.889258   5.705299   9.506911
H  -0.889258   5.705299   9.506911
N   0.000000   2.948624   3.227912
C   0.000000   4.914003   4.935921
C   0.000000   3.814977   3.987667
H   0.000000   5.861066   4.396293
H  -0.889258   4.858701   5.563411
H   0.889258   4.858701   5.563411
N   0.000000   8.230624  11.114912
C   0.000000  10.196003  12.822921
C   0.000000   9.096977  11.874667
H   0.000000  11.143066  12.283293
H  -0.889258  10.140701  13.450411
H   0.889258  10.140701  13.450411
