21
5b. Nitromethane trimer, 3B-69 Test set       
C   3.283816   2.740850   5.334995
N   4.461122   3.656441   5.327849
O   5.252561   3.583967   4.392504
O   4.566896   4.457147   6.243883
H   3.069727   2.501474   6.368425
H   2.456394   3.296753   4.898075
H   3.519371   1.872659   4.734231
C   4.493684   3.496150   9.588495
N   3.316378   2.580559   9.581349
O   2.524939   2.653033   8.646004
O   3.210604   1.779853  10.497383
H   4.707773   3.735526  10.621925
H   5.321106   2.940247   9.151575
H   4.258129   4.364341   8.987731
C   7.086184  -0.377650   7.425505
N   5.908878   0.537941   7.432651
O   5.117439   0.465467   8.367996
O   5.803104   1.338647   6.516617
H   7.300273  -0.617026   6.392075
H   7.913606   0.178253   7.862425
H   6.850629  -1.245841   8.026269
