24
7a. Oxalic acid trimer, 3B-69 Test set         
C  -1.599714   6.025105   4.897591
H  -0.099127   5.378673   5.850628
O  -0.967931   6.644650   4.061493
O  -1.098297   5.340779   5.888304
C  -3.137243   6.004895   4.888196
O  -3.769026   5.385350   5.724294
O  -3.638660   6.689221   3.897483
H  -4.637830   6.651327   3.935158
C  -1.953003   3.017605   2.441750
H  -3.453591   2.371173   1.488712
O  -2.584787   3.637150   3.277847
O  -2.454420   2.333279   1.451036
C  -0.415475   2.997395   2.451144
O   0.216308   2.377850   1.615046
O   0.085942   3.681721   3.441857
H   1.085112   3.643827   3.404182
C  -4.321482   3.017605   7.334643
H  -5.822069   2.371173   6.381605
O  -4.953265   3.637150   8.170741
O  -4.822899   2.333279   6.343930
C  -2.783954   2.997395   7.344037
O  -2.152170   2.377850   6.507940
O  -2.282537   3.681721   8.334750
H  -1.283366   3.643827   8.297075
