27
11a. Isoxazole trimer, 3B-69 Test set            
O   0.492354  17.073364   2.537438
N   1.798473  16.694123   2.876901
C   2.471400  17.819028   3.017689
O   3.748782  17.852113   3.372032
C   1.656726  18.954747   2.752056
C   0.452423  18.416167   2.466513
H   4.054562  16.938298   3.666928
H   1.933991  19.992652   2.790034
H  -0.503537  18.832499   2.208674
O   0.447832  18.976136   6.080158
N   1.753952  19.355377   6.419622
C   2.426879  18.230472   6.560409
O   3.704261  18.197387   6.914752
C   1.612204  17.094753   6.294776
C   0.407901  17.633333   6.009233
H   4.010041  19.111202   7.209648
H   1.889469  16.056848   6.332754
H  -0.548059  17.217001   5.751394
O   5.679703  14.970636   4.548003
N   4.373584  15.349877   4.208539
C   3.700657  14.224972   4.067751
O   2.423275  14.191887   3.713409
C   4.515331  13.089253   4.333385
C   5.719634  13.627833   4.618928
H   2.117495  15.105702   3.418512
H   4.238066  12.051348   4.295407
H   6.675595  13.211501   4.876767
