27
13c. Triazine trimer, 3B-69 Test set               
C  -3.523470  13.924245   6.674250
N  -4.139624  12.739737   6.674250
H  -2.441366  13.924245   6.674250
C  -5.473515  15.050104   6.674250
N  -4.139624  15.108753   6.674250
H  -6.014567  15.987233   6.674250
C  -5.473515  12.798386   6.674250
N  -6.191252  13.924245   6.674250
H  -6.014567  11.861257   6.674250
C  -4.173485  12.798386  10.314750
N  -3.455748  13.924245  10.314750
H  -3.632433  11.861257  10.314750
C  -6.123530  13.924245  10.314750
N  -5.507376  12.739737  10.314750
H  -7.205634  13.924245  10.314750
C  -4.173485  15.050104  10.314750
N  -5.507376  15.108753  10.314750
H  -3.632433  15.987233  10.314750
C   0.650015  10.013537   7.887750
N   1.367752  11.139396   7.887750
H   1.191067   9.076408   7.887750
C  -1.300030  11.139396   7.887750
N  -0.683876   9.954888   7.887750
H  -2.382134  11.139396   7.887750
C   0.650015  12.265255   7.887750
N  -0.683876  12.323904   7.887750
H   1.191067  13.202384   7.887750
