30
16b. 1,2,4-Triazolidine-3,5-done trimer, 3B-69 Test set   
N  -0.050072   2.634150   3.305578
N  -0.508443   1.631479   4.178684
C  -0.094523   1.949880   5.442343
N   0.428735   3.222814   5.356588
C   0.451861   3.654419   4.047148
O  -0.182753   1.273410   6.462645
O   0.852126   4.747272   3.641043
H  -0.602367   2.840582   2.463796
H  -0.455705   0.667432   3.850119
H   0.845509   3.735184   6.149304
N   1.196054   2.122350   8.781654
N   0.737684   3.125021   9.654759
C   1.151603   2.806620  10.918419
N   1.674861   1.533686  10.832663
C   1.697988   1.102081   9.523224
O   1.063373   3.483090  11.938721
O   2.098252   0.009228   9.117118
H   0.643759   1.915918   7.939872
H   0.790422   4.089068   9.326195
H   2.091636   1.021316  11.625380
N   2.542325   6.878850   7.646573
N   3.000696   7.881521   6.773467
C   2.586777   7.563120   5.509808
N   2.063518   6.290186   5.595564
C   2.040392   5.858581   6.905003
O   2.675006   8.239590   4.489506
O   1.640127   4.765728   7.311109
H   3.094620   6.672418   8.488355
H   2.947958   8.845568   7.102032
H   1.646744   5.777816   4.802847
