33
17c. 2-Oxazolidinone trimer, 3B-69 Test set               
N   7.885048   4.838445   5.370438
O   6.875708   6.333394   4.087222
O   7.551157   7.002241   6.125743
C   7.491717   4.046721   4.211985
C   7.051351   5.158913   3.244881
C   7.465555   6.109764   5.290126
H   8.287993   4.457730   6.230055
H   6.687519   3.355750   4.460112
H   8.330720   3.476585   3.817056
H   7.813568   5.398370   2.504984
H   6.107802   4.958202   2.750776
N   4.978186   2.001945  -0.701142
O   5.987525   3.496894   0.582074
O   5.312076   4.165741  -1.456447
C   5.371517   1.210221   0.457311
C   5.811882   2.322413   1.424416
C   5.397678   3.273264  -0.620830
H   4.575240   1.621230  -1.560759
H   6.175714   0.519250   0.209184
H   4.532513   0.640085   0.852240
H   5.049665   2.561870   2.164312
H   6.755431   2.121702   1.918520
N  10.523419   6.507555   3.968155
O  11.532758   5.012606   5.251371
O  10.857310   4.343759   3.212849
C  10.916750   7.299279   5.126607
C  11.357116   6.187087   6.093712
C  10.942911   5.236236   4.048467
H  10.120473   6.888270   3.108537
H  11.720947   7.990250   4.878481
H  10.077746   7.869415   5.521536
H  10.594898   5.947630   6.833609
H  12.300665   6.387798   6.587817
