36
20c. Maleic Acid trimer, 3B-69 Test set       
C  -1.647553  10.845738   6.203201
O  -2.151260  10.135432   5.220314
H  -2.044314   9.136168   5.373168
O  -1.751616  12.068249   6.162720
C  -0.955798  10.207203   7.360275
H  -0.559945  10.946547   8.044089
C  -0.752528   8.923996   7.681774
H  -0.206856   8.720057   8.594701
C  -1.192451   7.714058   6.945301
O  -0.824514   6.606276   7.535470
H  -1.177353   5.797481   7.049024
O  -1.842498   7.729101   5.897324
C   2.045747  10.845738   6.203201
O   1.542040  10.135432   5.220314
H   1.648986   9.136168   5.373168
O   1.941684  12.068249   6.162720
C   2.737502  10.207203   7.360275
H   3.133355  10.946547   8.044089
C   2.940772   8.923996   7.681774
H   3.486444   8.720057   8.594701
C   2.500849   7.714058   6.945301
O   2.868786   6.606276   7.535470
H   2.515947   5.797481   7.049024
O   1.850802   7.729101   5.897324
C   5.739047  10.845738   6.203201
O   5.235340  10.135432   5.220314
H   5.342286   9.136168   5.373168
O   5.634984  12.068249   6.162720
C   6.430802  10.207203   7.360275
H   6.826655  10.946547   8.044089
C   6.634072   8.923996   7.681774
H   7.179744   8.720057   8.594701
C   6.194149   7.714058   6.945301
O   6.562086   6.606276   7.535470
H   6.209247   5.797481   7.049024
O   5.544102   7.729101   5.897324
