36
21a. para-Benzoquinone trimer, 3B-69 Test set
O   0.080654  12.312048   7.623703
C  -0.510475  11.316440   7.221364
C   0.018253   9.957365   7.479383
H   0.942935   9.888301   8.038752
C  -1.783484  11.439808   6.471979
H  -2.138694  12.448619   6.295076
O  -2.498580   8.000952   5.895778
C  -1.907451   8.996560   6.298118
C  -0.634441   8.873192   7.047503
H  -0.279231   7.864381   7.224406
C  -2.436179  10.355635   6.040099
H  -3.360861  10.424699   5.480730
O  -0.523827   4.615452  11.003574
C  -1.114956   5.611060  10.601234
C  -0.586228   6.970135  10.859253
H   0.338454   7.039199  11.418622
C  -2.387966   5.487692   9.851849
H  -2.743176   4.478881   9.674947
O  -3.103061   8.926548   9.275649
C  -2.511932   7.930940   9.677989
C  -1.238923   8.054308  10.427374
H  -0.883713   9.063119  10.604276
C  -3.040660   6.571865   9.419969
H  -3.965342   6.502801   8.860601
O  -0.523827  11.386452  11.003574
C  -1.114956  12.382060  10.601234
C  -0.586228  13.741135  10.859253
H   0.338454  13.810199  11.418622
C  -2.387966  12.258692   9.851849
H  -2.743176  11.249881   9.674947
O  -3.103061  15.697548   9.275649
C  -2.511932  14.701940   9.677989
C  -1.238923  14.825308  10.427374
H  -0.883713  15.834119  10.604276
C  -3.040660  13.342865   9.419969
H  -3.965342  13.273801   8.860601
