36
22b. Uracil trimer, 3B-69 Test set   
C  13.734364   2.590668   0.028635
C  14.019822   0.153091   0.109586
C  15.427568   0.353582   0.256965
C  15.903780   1.606034   0.279296
H  16.836035   1.811846   0.351277
H  15.398336   3.470230   0.130474
H  12.407540   1.172007  -0.100365
H  15.974195  -0.398507   0.309249
N  15.094883   2.691780   0.167358
N  13.268390   1.295520   0.012734
O  12.993161   3.549066  -0.068154
O  13.451559  -0.953695   0.061536
C  11.857268   2.590668   3.165034
C  12.142726   0.153091   3.245985
C  13.550472   0.353582   3.393364
C  14.026684   1.606034   3.415695
H  14.958939   1.811846   3.487676
H  13.521240   3.470230   3.266873
H  10.530444   1.172007   3.036034
H  14.097099  -0.398507   3.445648
N  13.217787   2.691780   3.303757
N  11.391294   1.295520   3.149133
O  11.116065   3.549066   3.068245
O  11.574463  -0.953695   3.197935
C   9.980172   2.590668   6.301433
C  10.265630   0.153091   6.382383
C  11.673376   0.353582   6.529763
C  12.149588   1.606034   6.552094
H  13.081843   1.811846   6.624074
H  11.644144   3.470230   6.403272
H   8.653349   1.172007   6.172433
H  12.220003  -0.398507   6.582047
N  11.340691   2.691780   6.440156
N   9.514198   1.295520   6.285531
O   9.238969   3.549066   6.204644
O   9.697367  -0.953695   6.334334
