39
23c. 3,4-Cyclobutylfuran trimer, 3B-69 Test set
C   0.033625   6.706119  19.311940
C   0.959973   6.409193  18.375834
C   1.844713   5.563213  17.469053
C   2.428737   6.928222  16.911667
C   1.468218   7.630170  17.861517
C   0.836376   8.641449  18.494783
O  -0.055444   8.081564  19.396240
H  -0.613956   6.162872  19.973661
H   1.303334   4.976352  16.727678
H   2.566915   4.929195  17.981144
H   2.250375   7.094996  15.852837
H   3.484034   7.081902  17.126143
H   0.854554   9.715243  18.490137
C   0.081769   8.061381  14.472680
C   1.008117   8.358307  13.536573
C   1.892857   9.204287  12.629792
C   2.476881   7.839278  12.072406
C   1.516362   7.137330  13.022256
C   0.884521   6.126051  13.655522
O  -0.007300   6.685936  14.556980
H  -0.565812   8.604628  15.134400
H   1.351478   9.791148  11.888418
H   2.615059   9.838305  13.141883
H   2.298519   7.672504  11.013576
H   3.532179   7.685598  12.286882
H   0.902698   5.052257  13.650876
C   5.035769   8.061381  14.472680
C   5.962117   8.358307  13.536573
C   6.846857   9.204287  12.629792
C   7.430881   7.839278  12.072406
C   6.470362   7.137330  13.022256
C   5.838521   6.126051  13.655522
O   4.946700   6.685936  14.556980
H   4.388188   8.604628  15.134400
H   6.305478   9.791148  11.888418
H   7.569059   9.838305  13.141883
H   7.252519   7.672504  11.013576
H   8.486179   7.685598  12.286882
H   5.856698   5.052257  13.650876
