13

H	4.088400	5.753600	2.783200	0.57466
H	5.625700	5.562200	1.906100	0.599916
H	3.652300	3.273400	2.592000	0.635976
H	3.854600	3.998000	0.981500	0.639316
H	5.422500	4.834300	3.521000	0.599615
H	6.213700	0.125700	0.386400	0.591772
H	7.201100	1.360500	1.112200	0.592596
C	4.913200	5.058000	2.573500	0.752822
C	4.366200	3.792500	1.934100	0.789551
C	5.167900	1.729300	1.084700	0.833457
N	6.291500	0.963700	0.938200	0.819391
O	4.042300	1.399100	0.752900	0.969674
O	5.490300	2.915100	1.682200	0.893943
