9

H	1.46070	0.12310	5.28490	0.59018
H	-0.10780	-1.16390	7.17230	0.60783
H	3.68470	-1.12790	5.34810	0.57214
H	1.57240	-3.14090	8.14660	0.61750
C	1.67740	-0.71970	5.93240	0.80003
C	0.91410	-1.38230	6.88490	0.81458
C	1.77140	-2.39410	7.38370	0.82478
N	2.88430	-1.34810	5.92280	0.84015
N	2.97010	-2.36120	6.78720	0.93470
