12                              

H       4.2463  11.7425 0.3146  0.620119
H       5.1221  14.1045 0.3215  0.563512
H       0.381   13.4299 -0.051  0.637802
H       3.5871  15.901  0.1441  0.581478
C       3.5852  12.6002 0.2369  0.804313
C       2.1488  12.36   0.1251  0.835417
C       4.0601  13.8729 0.2405  0.777855
C       1.8354  14.8595 0.0282  0.823199
N       1.3856  13.5494 0.0292  0.833669
N       3.2255  14.9569 0.1407  0.820021
O       1.5903  11.271  0.1096  0.974795
O       1.1118  15.8385 -0.0605 0.972999
