24
{"formula": "C8H8N4O4", "name": "Uracildimerstack"}
 N      2.01135870     -1.21320730     -0.09806730
 C      2.02570760     -0.69717970     -1.36440290
 H      2.29752080     -1.39105920     -2.14564590
 C      1.71452260      0.59196510     -1.61248920
 H      1.72728730      0.99084660     -2.61200500
 C      1.30896050      1.45753400     -0.52058900
 O      0.92059260      2.61108640     -0.62604570
 N      1.37688850      0.83974540      0.73463560
 H      1.05180400      1.38622290      1.52337100
 C      1.64599090     -0.48521130      1.01872670
 O      1.56110900     -0.97180610      2.12980590
 H      2.12946350     -2.20150460      0.05681340
 N     -2.01135870      1.21320730     -0.09806730
 C     -2.02570760      0.69717970     -1.36440290
 H     -2.29752080      1.39105920     -2.14564590
 C     -1.71452260     -0.59196510     -1.61248920
 H     -1.72728730     -0.99084660     -2.61200500
 C     -1.30896050     -1.45753400     -0.52058900
 O     -0.92059260     -2.61108640     -0.62604570
 N     -1.37688850     -0.83974540      0.73463560
 H     -1.05180400     -1.38622290      1.52337100
 C     -1.64599090      0.48521130      1.01872670
 O     -1.56110900      0.97180610      2.12980590
 H     -2.12946350      2.20150460      0.05681340
