16
{"formula": "C8H7N"}
 H     -2.94176470      0.89538340      2.22390540
 C     -2.02206740      0.42585400      1.90135490
 C     -0.81494180      1.07404530      2.10669820
 H     -0.78515290      2.04438120      2.58560860
 C      0.37042860      0.44928520      1.68474580
 C      1.75086190      0.80389350      1.71940040
 H      2.18701080      1.69982810      2.12759030
 C      2.44513590     -0.23107420      1.13533130
 N      1.56464620     -1.21378120      0.75553840
 C      0.28612140     -0.82694860      1.06187520
 C     -0.92846670     -1.48531210      0.86069370
 H     -0.97292000     -2.45548470      0.38340130
 C     -2.07928480     -0.84176680      1.28764430
 H     -3.03899740     -1.32038460      1.14684000
 H      1.80757410     -2.03669630      0.23330380
 H      3.50287940     -0.34853440      0.96952330
