24
{"formula": "C12H12", "name": "BenzenedimerTshaped"}
 C      0.00000000      0.00000000      1.05903530
 C      0.00000000     -1.20600840      1.75767420
 C      0.00000000     -1.20717670      3.15159050
 C      0.00000000      0.00000000      3.84857510
 C      0.00000000      1.20717670      3.15159050
 C      0.00000000      1.20600840      1.75767420
 H      0.00000000      0.00000000     -0.02158050
 H      0.00000000     -2.14163870      1.21442170
 H      0.00000000     -2.14356570      3.69299530
 H      0.00000000      0.00000000      4.93014990
 H      0.00000000      2.14356570      3.69299530
 H      0.00000000      2.14163870      1.21442170
 C     -1.39406330      0.00000000     -2.45415240
 C     -0.69704680      1.20723780     -2.45462770
 C      0.69704680      1.20723780     -2.45462770
 C      1.39406330      0.00000000     -2.45415240
 C      0.69704680     -1.20723780     -2.45462770
 C     -0.69704680     -1.20723780     -2.45462770
 H     -2.47539950      0.00000000     -2.45032210
 H     -1.23823210      2.14356550     -2.45367640
 H      1.23823210      2.14356550     -2.45367640
 H      2.47539950      0.00000000     -2.45032210
 H      1.23823210     -2.14356550     -2.45367640
 H     -1.23823210     -2.14356550     -2.45367640
