13
{"formula": "C6H6O"}
 C     -2.00710560      0.76384590     -0.10835090
 O     -1.38850440      1.92985230     -0.44312060
 H     -0.52381210      1.96465190     -0.00646090
 C     -1.46308070     -0.15191200      0.79499300
 C     -2.14757890     -1.32950940      1.08836770
 C     -3.37432080     -1.60314270      0.48958640
 C     -3.91437270     -0.68385450     -0.40910280
 C     -3.23704960      0.49296090     -0.70961260
 H     -0.51065100      0.05665690      1.26425630
 H     -1.71511350     -2.03214520      1.78784170
 H     -3.90246640     -2.51738650      0.71979470
 H     -4.86707300     -0.88229390     -0.88113190
 H     -3.64316620      1.21343450     -1.40575900
