9
1c. Water trimer, 3B-69 Test set           
O  -1.206108   0.893312   0.066093
H  -1.872043   1.147949  -0.579618
H  -1.070581  -0.072576  -0.024084
O  -0.014443  -1.614719  -0.009938
H  -0.027039  -2.101017   0.820609
H   0.810370  -1.091722  -0.026818
O   1.602083   0.679871   0.031168
H   2.064562   1.065746  -0.719443
H   0.719298   1.097655   0.053930
