12
2a. Formaldehyde trimer, 3B-69 Test set       
O   2.074088   0.498855   1.635515
C   2.169454   0.154280   2.793163
H   2.970226  -0.523067   3.124239
H   1.470340   0.502963   3.564302
O   2.074088   0.498855   6.109515
C   2.169454   0.154280   7.267163
H   2.970226  -0.523067   7.598239
H   1.470340   0.502963   8.038302
O   2.074088   0.498855  10.583515
C   2.169454   0.154280  11.741163
H   2.970226  -0.523067  12.072239
H   1.470340   0.502963  12.512302
