24
6b. Acetic acid trimer, 3B-69 Test set     
O   1.069844  17.887053   8.034205
C   0.268685  17.401890   8.967150
O  -0.114510  16.236406   8.947382
C  -0.138072  18.413124   9.992293
H   1.319178  17.191358   7.354982
H  -0.928157  19.031693   9.562343
H   0.693086  19.071689  10.232330
H  -0.525179  17.924444  10.880182
O   5.327155  17.887053   2.402174
C   4.525997  17.401890   3.335120
O   4.142801  16.236406   3.315351
C   4.119240  18.413124   4.360262
H   5.576489  17.191358   1.722951
H   3.329155  19.031693   3.930313
H   4.950397  19.071689   4.600299
H   3.732132  17.924444   5.248152
O   3.198500  14.682947   5.218189
C   2.397341  15.168110   6.151135
O   2.014145  16.333594   6.131367
C   1.990584  14.156876   7.176277
H   3.447834  15.378642   4.538966
H   1.200499  13.538307   6.746328
H   2.821742  13.498311   7.416314
H   1.603476  14.645556   8.064167
