24
8b. Vinylene carbonate trimer, 3B-69 Test set   
C   6.614426  15.309211   6.284242
C   7.233089  14.713030   7.289886
C   6.700630  13.146144   5.814889
H   6.352757  16.325703   6.062101
H   7.658627  15.047782   8.214970
O   6.278104  14.340510   5.337777
O   7.313780  13.348493   7.006107
O   6.551175  12.082704   5.282904
C   7.061072  10.034211   7.907066
C   6.442408   9.438030   6.901422
C   6.974868   7.871144   8.376420
H   7.322740  11.050703   8.129207
H   6.016871   9.772782   5.976338
O   7.397394   9.065510   8.853531
O   6.361718   8.073493   7.185201
O   7.124323   6.807704   8.908405
C  10.244426  11.065790   6.284242
C  10.863089  11.661970   7.289886
C  10.330630  13.228856   5.814889
H   9.982757  10.049297   6.062101
H  11.288627  11.327218   8.214970
O   9.908104  12.034491   5.337777
O  10.943780  13.026507   7.006107
O  10.181175  14.292296   5.282904
