27
9b. Acetamide trimer, 3B-69 Test set   
C  10.246784   1.879305   9.066557
C   9.562551   3.225727   9.094103
O  10.092792   4.220963   8.556764
N   8.404387   3.301763   9.748501
H   7.981022   4.207826   9.959027
H   7.997857   2.464404  10.171272
H  10.854309   1.794212   9.969770
H   9.540601   1.051666   9.058435
H  10.902460   1.808212   8.203781
C   6.991216   5.196760   6.917890
C   7.675449   6.543182   6.945436
O   7.145208   7.538418   6.408098
N   8.833613   6.619218   7.599834
H   9.256978   7.525281   7.810360
H   9.240143   5.781859   8.022606
H   6.383691   5.111667   7.821104
H   7.697399   4.369121   6.909768
H   6.335540   5.125666   6.055115
C  14.987866   3.456191   6.917890
C  13.479714   3.375543   6.945436
O  12.882934   2.418723   6.408098
N  12.834783   4.340524   7.599834
H  11.838426   4.254138   7.810360
H  13.356692   5.111269   8.022606
H  15.365321   2.972605   7.821104
H  15.351531   4.481583   6.909768
H  15.377273   2.923905   6.055115
