30
14a. Cyanoacetamide trimer, 3B-69 Test set
C   1.548277  23.663489   4.208642
C   1.421215  21.191417   4.153643
C   2.061208  22.333103   4.777250
H   1.908971  22.268712   5.855094
H   3.139142  22.251767   4.619444
H   1.737034  25.669506   4.463824
H   2.673896  24.682765   5.589546
N   2.057057  24.754476   4.788179
N   0.916336  20.283572   3.661117
O   0.755881  23.689923   3.263642
C   2.914349  23.782511   0.683048
C   2.787287  26.254583   0.628049
C   3.427280  25.112897   1.251656
H   3.275043  25.177288   2.329501
H   4.505214  25.194233   1.093851
H   3.103105  21.776494   0.938231
H   4.039968  22.763235   2.063953
N   3.423129  22.691524   1.262585
N   2.282408  27.162428   0.135524
O   2.121953  23.756077  -0.261952
C   5.578016  24.531209   4.180296
C   5.959025  25.683875   4.971369
C   5.523547  27.001790   4.318499
H   7.033398  25.650121   5.147860
H   5.473121  25.603895   5.947323
H   5.745653  29.007129   4.522561
H   6.694405  28.038010   5.647154
N   5.270009  23.616585   3.555913
N   6.093512  28.097115   4.832460
O   4.699107  27.019141   3.402268
