30
14b. Cyanoacetamide trimer, 3B-69 Test set
C   2.712508  16.885489   6.368138
C   2.839569  14.413417   6.423138
C   2.199576  15.555103   5.799531
H   2.351814  15.490712   4.721686
H   1.121642  15.473767   5.957336
H   2.523751  18.891506   6.112956
H   1.586888  17.904765   4.987234
N   2.203727  17.976476   5.788601
N   3.344448  13.505572   6.915663
O   3.504903  16.911923   7.313138
C   4.078580  17.004511   2.842545
C   4.205641  19.476583   2.897544
C   3.565648  18.334897   2.273937
H   3.717885  18.399288   1.196093
H   2.487714  18.416233   2.431743
H   3.889823  14.998494   2.587362
H   2.952960  15.985235   1.461640
N   3.569799  15.913524   2.263008
N   4.710520  20.384428   3.390070
O   4.870975  16.978077   3.787545
C   5.578016  10.975209   4.180296
C   5.959025  12.127875   4.971369
C   5.523547  13.445790   4.318499
H   7.033398  12.094121   5.147860
H   5.473121  12.047895   5.947323
H   5.745653  15.451129   4.522561
H   6.694405  14.482010   5.647154
N   5.270009  10.060585   3.555913
N   6.093512  14.541115   4.832460
O   4.699107  13.463141   3.402268
