36
20a. Maleic Acid trimer, 3B-69 Test set       
C  -1.812866   3.535867   7.854403
C  -3.019070   4.394092   7.792090
H  -2.805931   5.454418   7.726603
C  -4.302655   4.018833   7.784558
H  -5.037740   4.808884   7.706247
C  -4.936171   2.675625   7.888204
O  -0.712671   4.235658   7.949894
H   0.111684   3.656381   7.952260
O  -1.820850   2.303290   7.796572
O  -4.226933   1.572740   7.922753
H  -3.229793   1.745595   7.834420
O  -6.160859   2.589500   7.962157
C  -3.945878   1.506583  10.966906
C  -5.152081   0.648358  10.904594
H  -4.938942  -0.411968  10.839107
C  -6.435667   1.023617  10.897062
H  -7.170751   0.233566  10.818751
C  -7.069182   2.366825  11.000708
O  -2.845682   0.806792  11.062398
H  -2.021327   1.386069  11.064763
O  -3.953861   2.739160  10.909076
O  -6.359945   3.469710  11.035257
H  -5.362805   3.296855  10.946924
O  -8.293870   2.452950  11.074661
C   3.529022   1.506583  10.966906
C   2.322819   0.648358  10.904594
H   2.535958  -0.411968  10.839107
C   1.039233   1.023617  10.897062
H   0.304149   0.233566  10.818751
C   0.405718   2.366825  11.000708
O   4.629218   0.806792  11.062398
H   5.453573   1.386069  11.064763
O   3.521039   2.739160  10.909076
O   1.114955   3.469710  11.035257
H   2.112095   3.296855  10.946924
O  -0.818970   2.452950  11.074661
